packages/importer_pkg/tests/files/test_uct_exporter_uct_file_output.uct
##C
Preamble
Note: this data does not represent real world data and is used to test functions
##N
##ZAL
D8ABC_1            0  2 1 10000        0       0 -1.0000  10.000       0  60.000 5.00000  10.000                                 
D8DFE_1            1  0 2 10000        0       0  1.0000  10.000       0  60.000 5.00000  10.000                                 
##L
D8ABC_11 D8DEF_12 1 0 1.0000 1.0000        0   2000         abv  
D8ABC_13 D8DEF_11 1 0 1.0000 1.0000        0   2000         abv  
D8ABC_13 D8ASD_11 1 0 1.0000 1.0000        0   2000         abv  
D8ABC_11 D8ABC_12 1 2 0.0000 0.0000        0   2000         abv  
D8ABC_11 D8ABC_12 2 2 0.0000 0.0000        0   2000         abv  
D8ABC_11 D8ABC_13 2 7 0.0000 0.0000        0   2000         abv  
D8QWE_12 D8QWE_11 2 2 0.0000 0.0000        0   2000         abv  
D8QWE_12 D8QWE_13 2 2 0.0000 0.0000        0   2000           ab 
D8QWE_11 D8QWE_13 2 2 0.0000 0.0000        0   2000         abv  
D8ASD_12 D8ASD_13 2 2 0.0000 0.0000        0   2000         abv  
D8ASD_12 D8ASD_11 2 2 0.0000 0.0000        0   2000         abv  
D8TZU_13 D8TZU_12 2 2 0.0000 0.0000        0   2000      34 abv  
D8TZU_13 D8TZU_11 2 2 0.0000 0.0000        0   2000         abv  
##T
D8ABC_11 D8DFE_11 1 0 100.0 220.0 300.0 0.1111 1.1111        0      0    111              
D8ABC_11 D8DFE_12 1 0 100.0 220.0 300.0 0.1111 1.1111        0      0   1111              
D8ABC_11 D8DEF_12 1 0 100.0 220.0 300.0 0.1111 1.1111        0      0   1111              
D8ABC_11 D8DEF_11 1 0 100.0 220.0 300.0 0.1111 1.1111        0      0   1111              
D8ABC_11 D8ASD_11 1 0 100.0 220.0 300.0 0.1111 1.1111        0      0   1111              
##R
D8ABC_11 D8DFE_11 1 2.000  4   4                                     
D8ABC_11 D8DFE_12 1 1.000  3   3                                     
D8ABC_11 D8DEF_12 1 1.000  3   3                                     
D8ABC_11 D8DEF_11 1 1.000  3   3                                     
D8ABC_11 D8ASD_11 1 1.000  3   3                                     
##TT
##E
